Test Cases/_GUI_Final_RunCase.dss
Clear

! ===== SYSTEM BUILD =====
Set DefaultBaseFrequency=60

!
! This script is based on a script developed by Tennessee Tech Univ students
! Tyler Patton, Jon Wood, and David Woods, April 2009
!

new circuit.IEEE13Nodeckt 
~ basekv=115 pu=1.0001 phases=3 bus1=SourceBus  
~ Angle=30                                                         ! advance angle 30 deg so result agree with published angle
~ MVAsc3=20000 MVASC1=21000    ! stiffen the source to approximate inf source



!SUB TRANSFORMER DEFINITION 
! Although this data was given, it does not appear to be used in the test case results
! The published test case starts at 1.0 per unit at Bus 650. To make this happen, we will change the impedance
! on the transformer to something tiny by dividing by 1000 using the DSS in-line RPN math
New Transformer.Sub Phases=3 Windings=2   XHL=(8 1000 /)
~ wdg=1 bus=SourceBus   conn=delta  kv=115  kva=5000   %r=(.5 1000 /) 
~ wdg=2 bus=650             conn=wye    kv=4.16  kva=5000   %r=(.5 1000 /)  

! FEEDER 1-PHASE VOLTAGE REGULATORS
! Define low-impedance 2-wdg transformer

New Transformer.Reg1 phases=1 bank=reg1 XHL=0.01 kVAs=[1666 1666]
~ Buses=[650.1 RG60.1] kVs=[2.4  2.4] %LoadLoss=0.01
new regcontrol.Reg1  transformer=Reg1 winding=2  vreg=122  band=2  ptratio=20 ctprim=700  R=3   X=9 

New Transformer.Reg2 phases=1 bank=reg1 XHL=0.01 kVAs=[1666 1666]
~ Buses=[650.2 RG60.2] kVs=[2.4  2.4] %LoadLoss=0.01
new regcontrol.Reg2  transformer=Reg2 winding=2  vreg=122  band=2  ptratio=20 ctprim=700  R=3   X=9 

New Transformer.Reg3 phases=1 bank=reg1 XHL=0.01 kVAs=[1666 1666]
~ Buses=[650.3 RG60.3] kVs=[2.4  2.4] %LoadLoss=0.01
new regcontrol.Reg3  transformer=Reg3 winding=2  vreg=122  band=2  ptratio=20 ctprim=700  R=3   X=9 


!TRANSFORMER DEFINITION 
New Transformer.XFM1  Phases=3   Windings=2  XHL=2
~ wdg=1 bus=633       conn=Wye kv=4.16    kva=500    %r=.55     XHT=1
~ wdg=2 bus=634       conn=Wye kv=0.480    kva=500    %r=.55   XLT=1


!LINE CODES
redirect IEEELineCodes.dss

// these are local matrix line codes
// corrected 9-14-2011
New linecode.mtx601 nphases=3 BaseFreq=60 
~ rmatrix = (0.3465 | 0.1560 0.3375 | 0.1580 0.1535 0.3414 ) 
~ xmatrix = (1.0179 | 0.5017 1.0478 | 0.4236 0.3849 1.0348 ) 
~ units=mi 
New linecode.mtx602 nphases=3 BaseFreq=60 
~ rmatrix = (0.7526 | 0.1580 0.7475 | 0.1560 0.1535 0.7436 ) 
~ xmatrix = (1.1814 | 0.4236 1.1983 | 0.5017 0.3849 1.2112 ) 
~ units=mi 
New linecode.mtx603 nphases=2 BaseFreq=60 
~ rmatrix = (1.3238 | 0.2066 1.3294 ) 
~ xmatrix = (1.3569 | 0.4591 1.3471 ) 
~ units=mi 
New linecode.mtx604 nphases=2 BaseFreq=60 
~ rmatrix = (1.3238 | 0.2066 1.3294 ) 
~ xmatrix = (1.3569 | 0.4591 1.3471 ) 
~ units=mi 
New linecode.mtx605 nphases=1 BaseFreq=60 
~ rmatrix = (1.3292 ) 
~ xmatrix = (1.3475 ) 
~ units=mi 

/*********** Original 606 Linecode *********************

You have to use this to match Kersting's results:

New linecode.mtx606 nphases=3 BaseFreq=60 
~ rmatrix = (0.7982 | 0.3192 0.7891 | 0.2849 0.3192 0.7982 ) 
~ xmatrix = (0.4463 | 0.0328 0.4041 | -0.0143 0.0328 0.4463 ) 
~ Cmatrix = [257 | 0 257 | 0 0 257]  ! <--- This is too low by 1.5
~ units=mi 

Corrected mtx606  Feb 3 2016 by RDugan

The new LineCode.606 is computed using the following CN cable definition and 
LineGeometry definition:

New CNDATA.250_1/3 k=13 DiaStrand=0.064 Rstrand=2.816666667 epsR=2.3
~ InsLayer=0.220 DiaIns=1.06 DiaCable=1.16 Rac=0.076705 GMRac=0.20568 diam=0.573
~ Runits=kft Radunits=in GMRunits=in

New LineGeometry.606 nconds=3 nphases=3 units=ft
~ cond=1 cncable=250_1/3 x=-0.5 h= -4
~ cond=2 cncable=250_1/3 x=0   h= -4
~ cond=3 cncable=250_1/3 x=0.5  h= -4

****End Comment******/ 

New Linecode.mtx606 nphases=3  Units=mi
~ Rmatrix=[0.791721  |0.318476  0.781649  |0.28345  0.318476  0.791721  ]
~ Xmatrix=[0.438352  |0.0276838  0.396697  |-0.0184204  0.0276838  0.438352  ]
~ Cmatrix=[383.948  |0  383.948  |0  0  383.948  ]
New linecode.mtx607 nphases=1 BaseFreq=60 
~ rmatrix = (1.3425 ) 
~ xmatrix = (0.5124 )
~ cmatrix = [236] 
~ units=mi 


!LOAD DEFINITIONS 
New Load.671 Bus1=671.1.2.3  Phases=3 Conn=Delta Model=1 kV=4.16   kW=1155 kvar=660 
New Load.634a Bus1=634.1     Phases=1 Conn=Wye  Model=1 kV=0.277  kW=160   kvar=110 
New Load.634b Bus1=634.2     Phases=1 Conn=Wye  Model=1 kV=0.277  kW=120   kvar=90 
New Load.634c Bus1=634.3     Phases=1 Conn=Wye  Model=1 kV=0.277  kW=120   kvar=90 
New Load.645 Bus1=645.2       Phases=1 Conn=Wye  Model=1 kV=2.4      kW=170   kvar=125 
New Load.646 Bus1=646.2.3    Phases=1 Conn=Delta Model=2 kV=4.16    kW=230   kvar=132 
New Load.692 Bus1=692.3.1    Phases=1 Conn=Delta Model=5 kV=4.16    kW=170   kvar=151 
New Load.675a Bus1=675.1    Phases=1 Conn=Wye  Model=1 kV=2.4  kW=485   kvar=190 
New Load.675b Bus1=675.2    Phases=1 Conn=Wye  Model=1 kV=2.4  kW=68   kvar=60 
New Load.675c Bus1=675.3    Phases=1 Conn=Wye  Model=1 kV=2.4  kW=290   kvar=212 
New Load.611 Bus1=611.3      Phases=1 Conn=Wye  Model=5 kV=2.4  kW=170   kvar=80 
New Load.652 Bus1=652.1      Phases=1 Conn=Wye  Model=2 kV=2.4  kW=128   kvar=86 
New Load.670a Bus1=670.1    Phases=1 Conn=Wye  Model=1 kV=2.4  kW=17    kvar=10 
New Load.670b Bus1=670.2    Phases=1 Conn=Wye  Model=1 kV=2.4  kW=66    kvar=38 
New Load.670c Bus1=670.3    Phases=1 Conn=Wye  Model=1 kV=2.4  kW=117  kvar=68 

!CAPACITOR DEFINITIONS
New Capacitor.Cap1 Bus1=675 phases=3 kVAR=600 kV=4.16 
New Capacitor.Cap2 Bus1=611.3 phases=1 kVAR=100 kV=2.4 

!Bus 670 is the concentrated point load of the distributed load on line 632 to 671 located at 1/3 the distance from node 632

!LINE DEFINITIONS 
New Line.650632    Phases=3 Bus1=RG60.1.2.3   Bus2=632.1.2.3  LineCode=mtx601 Length=2000 units=ft 
New Line.632670    Phases=3 Bus1=632.1.2.3    Bus2=670.1.2.3  LineCode=mtx601 Length=667  units=ft    
New Line.670671    Phases=3 Bus1=670.1.2.3    Bus2=671.1.2.3  LineCode=mtx601 Length=1333 units=ft 
New Line.671680    Phases=3 Bus1=671.1.2.3    Bus2=680.1.2.3  LineCode=mtx601 Length=1000 units=ft 
New Line.632633    Phases=3 Bus1=632.1.2.3    Bus2=633.1.2.3  LineCode=mtx602 Length=500  units=ft 
New Line.632645    Phases=2 Bus1=632.3.2      Bus2=645.3.2    LineCode=mtx603 Length=500  units=ft 
New Line.645646    Phases=2 Bus1=645.3.2      Bus2=646.3.2    LineCode=mtx603 Length=300  units=ft 
New Line.692675    Phases=3 Bus1=692.1.2.3    Bus2=675.1.2.3  LineCode=mtx606 Length=500  units=ft 
New Line.671684    Phases=2 Bus1=671.1.3      Bus2=684.1.3    LineCode=mtx604 Length=300  units=ft 
New Line.684611    Phases=1 Bus1=684.3        Bus2=611.3      LineCode=mtx605 Length=300  units=ft 
New Line.684652    Phases=1 Bus1=684.1        Bus2=652.1      LineCode=mtx607 Length=800  units=ft 


!SWITCH DEFINITIONS 
New Line.671692    Phases=3 Bus1=671   Bus2=692  Switch=y  r1=1e-4 r0=1e-4 x1=0.000 x0=0.000 c1=0.000 c0=0.000

Set Voltagebases=[115, 4.16, .48]
BusCoords IEEE13Node_BusXY.csv

!---------------------------------------------------------------------------------------------------------------------------------------------------
!----------------Show some Results -----------------------------------------------------------------------------------------------------------------
!---------------------------------------------------------------------------------------------------------------------------------------------------


// Show Voltages LN Nodes
// Show Currents Elem
// Show Powers kVA Elem
// Show Losses
// Show Taps

!---------------------------------------------------------------------------------------------------------------------------------------------------
!---------------------------------------------------------------------------------------------------------------------------------------------------
! Alternate Solution Script
! To force the taps to be same as published results, set the transformer taps manually and disable the controls
!---------------------------------------------------------------------------------------------------------------------------------------------------
/*
Transformer.Reg1.Taps=[1.0 1.0625]
Transformer.Reg2.Taps=[1.0 1.0500]
Transformer.Reg3.Taps=[1.0 1.06875]
Set Controlmode=OFF

*/

! ===== DER =====
! DER characteristic curves
New XYcurve.PV_EFF npts=4 xarray=[0.1 0.2 0.5 1.0] yarray=[0.965 0.975 0.985 0.990]
New XYcurve.INV_VV npts=4 xarray=[0.95 0.98 1.02 1.05] yarray=[0.44 0.0 0.0 -0.44]  ! puV vs puQ (capacitive +)
New XYcurve.INV_VW npts=3 xarray=[1.00 1.06 1.10] yarray=[1.00 1.00 0.20]            ! puV vs puP

! PV at primary buses (4.16 kV LL)
! PV1: medium PV near the big delta load at bus 671 (3-phase)
New PVSystem.PV_671 phases=3 bus1=671.1.2.3 conn=wye kv=4.16 kVA=750  Pmpp=650  %Pmpp=100
~ irrad=1.0  pf=1.0  effcurve=PV_EFF  %cutin=1  %cutout=1
~ VarFollowInverter=Yes  wattpriority=Yes

! PV2: smaller PV at bus 692
New PVSystem.PV_692 phases=3 bus1=692.1.2.3 conn=wye kv=4.16 kVA=400  Pmpp=350  %Pmpp=100
~ irrad=1.0 pf=1.0 effcurve=PV_EFF  %cutin=1  %cutout=1
~ VarFollowInverter=Yes wattpriority=Yes

! PV at secondary (0.48 kV LL)
! A 3-phase rooftop PV on the secondary side of Transformer.XFM1 (bus 634)
New PVSystem.PV_634 phases=3 bus1=634.1.2.3 conn=wye kv=0.48 kVA=250 Pmpp=220 %Pmpp=100
~ irrad=1.0 pf=1.0 effcurve=PV_EFF %cutin=1 %cutout=1
~ VarFollowInverter=Yes wattpriority=Yes

! Storage at bus 675
New Storage.BESS_675 phases=3 bus1=675.1.2.3 conn=wye kv=4.16
~ kWrated=500  kWhrated=1000  %stored=50  %reserve=20
~ %EffCharge=95 %EffDischarge=95  kVA=550  pf=1.0
~ State=IDLING  DispMode=DEFAULT  DischargeTrigger=0  ChargeTrigger=0

! Inverter control (Volt/Var + Volt/Watt)
New InvControl.DER_VV_VW Mode=VOLTVAR
~ DERList=[PVSystem.PV_671 PVSystem.PV_692 PVSystem.PV_634]
~ vvc_curve1=INV_VV  RefReactivePower=VARMAX  varchangetolerance=0.05  deltaQ_factor=0.7
~ VoltageChangeTolerance=0.002  EventLog=Yes

! ===== FAULT SCENARIO =====
! 3-phase bolted faults
New Fault.F3_RG60  phases=3 bus1=RG60.1.2.3   r=0.0001 enabled=No
New Fault.F3_632   phases=3 bus1=632.1.2.3    r=0.0001 enabled=No
New Fault.F3_633   phases=3 bus1=633.1.2.3    r=0.0001 enabled=No
New Fault.F3_671   phases=3 bus1=671.1.2.3    r=0.0001 enabled=No
New Fault.F3_675   phases=3 bus1=675.1.2.3    r=0.0001 enabled=No
New Fault.F3_680   phases=3 bus1=680.1.2.3    r=0.0001 enabled=No
New Fault.F3_692   phases=3 bus1=692.1.2.3    r=0.0001 enabled=No
New Fault.F3_670   phases=3 bus1=670.1.2.3    r=0.0001 enabled=No

! Secondary (0.48 kV) 3-phase fault at bus 634
New Fault.F3_634   phases=3 bus1=634.1.2.3    r=0.0001 enabled=No

!Single-line-to-ground (SLG) faults
New Fault.F1_645B  phases=1 bus1=645.2        r=0.0001 enabled=No   ! phase B at bus 645
New Fault.F1_611C  phases=1 bus1=611.3        r=0.0001 enabled=No   ! phase C at bus 611
New Fault.F1_652A  phases=1 bus1=652.1        r=0.0001 enabled=No   ! phase A at bus 652

! Line-to-line (L-L) faults
New Fault.FLL_646BC phases=1 bus1=646.2.3     r=0.0001 enabled=No   ! B-C at bus 646
New Fault.FLL_692CA phases=1 bus1=692.3.1     r=0.0001 enabled=No   ! C-A at bus 692

! --- Base solve settings ---
set maxiterations=50
set controlmode=static
set mode=snapshot
set stepsize=1h

! Make sure all fault elements start disabled
Disable Fault.*

! RUN 3-PHASE FAULTS
Disable Fault.*  ! safety
Enable Fault.F3_RG60
set casename=F3_RG60
solve
export currents
export voltages
export powers
Disable Fault.F3_RG60

Enable Fault.F3_632
set casename=F3_632
solve
export currents
export voltages
export powers
Disable Fault.F3_632

Enable Fault.F3_633
set casename=F3_633
solve
export currents
export voltages
export powers
Disable Fault.F3_633

Enable Fault.F3_671
set casename=F3_671
solve
export currents
export voltages
export powers
Disable Fault.F3_671

Enable Fault.F3_675
set casename=F3_675
solve
export currents
export voltages
export powers
Disable Fault.F3_675

Enable Fault.F3_680
set casename=F3_680
solve
export currents
export voltages
export powers
Disable Fault.F3_680

Enable Fault.F3_692
set casename=F3_692
solve
export currents
export voltages
export powers
Disable Fault.F3_692

Enable Fault.F3_670
set casename=F3_670
solve
export currents
export voltages
export powers
Disable Fault.F3_670

! Secondary fault at bus 634
Enable Fault.F3_634
set casename=F3_634
solve
export currents
export voltages
export powers
Disable Fault.F3_634

! RUN SLG FAULTS
Enable Fault.F1_645B
set casename=F1_645B
solve
export currents
export voltages
export powers
Disable Fault.F1_645B

Enable Fault.F1_611C
set casename=F1_611C
solve
export currents
export voltages
export powers
Disable Fault.F1_611C

Enable Fault.F1_652A
set casename=F1_652A
solve
export currents
export voltages
export powers
Disable Fault.F1_652A

! RUN L-L FAULTS
Enable Fault.FLL_646BC
set casename=FLL_646BC
solve
export currents
export voltages
export powers
Disable Fault.FLL_646BC

Enable Fault.FLL_692CA
set casename=FLL_692CA
solve
export currents
export voltages
export powers
Disable Fault.FLL_692CA
